include-path = $HERE/inc $HERE/../inc

$extract{?} = extract
$mirror{?} = mirror
$steplist{?} = $extract $mirror

$fcflags_level = -O0 -Ovector1 -hfp0 -hflex_mp=strict -G1

include = nemo-lim-common.cfg

build-ocean.prop{dep.o}[nemo/NEMOGCM/NEMO/OPA_SRC/$ocean_program.f90] = lib_cray 
