$nemo_base{?} = fcm:nemo.xm/trunk
$nemo_rev{?} = 

$nemo_path_incl{?} = NEMOGCM/NEMO/OPA_SRC NEMOGCM/CONFIG/SHARED NEMOGCM/EXTERNAL/IOIPSL/src

$nemo_namelist_ref = namelist_ref
$nemo_namelist_ref_rename = nemo/NEMOGCM/CONFIG/SHARED/namelist_ref:$nemo_namelist_ref

$lim_namelist_ref = namelist_ice_ref
$lim_namelist_ref_rename = nemo/NEMOGCM/CONFIG/SHARED/namelist_ice_lim3_ref:$lim_namelist_ref

$nemo_field_def = field_def_nemo-opa.xml
$nemo_field_def_rename = nemo/NEMOGCM/CONFIG/SHARED/field_def_nemo-opa.xml:$nemo_field_def

$lim_field_def = field_def_nemo-lim.xml
$lim_field_def_rename = nemo/NEMOGCM/CONFIG/SHARED/field_def_nemo-lim.xml:$lim_field_def

$nemo_domain_def = domain_def_nemo.xml
$nemo_domain_def_rename = nemo/NEMOGCM/CONFIG/SHARED/domain_def_nemo.xml:$nemo_domain_def

$ocean_program{?} = nemo

$fcflags_nemo_version = $ldflags_xios

$ocean_no_dep_module{?} = mpl netcdf xios \
 \ mod_prism_proto mod_prism_def_partition_proto mod_prism_grids_writing \
 \ mod_prism_put_proto mod_prism_get_proto mod_prism \
 \ mod_comprism_proto mod_prism_get_comm mpi

